Circuit: * M:\My Cloud\Google Drive (EPFL)\Lectures\Postgraduated\Advanced Analog\Slides\SCF\Quarto\Simulation of SC Circuits\Simulations\LTSpice\1st-order LP\SC_1st_order_LP.asc

Ignoring empty pin current: Ix(oa1:in+)
Ignoring empty pin current: Ix(oa1:in-p1)
Ignoring empty pin current: Ix(oa1:in-p2)

Date: Fri Jun 20 14:12:06 2025
Total elapsed time: 0.757 seconds.

tnom = 27
temp = 27
method = trap
totiter = 0
traniter = 0
tranpoints = 0
accept = 0
rejected = 0
matrix size = 8
fillins = 1
solver = Normal

