Using SPARSE 1.3 as Direct Linear Solver
Note: Starting dynamic gmin stepping
Warning: Dynamic gmin stepping failed
Note: Starting true gmin stepping
Warning: True gmin stepping failed
Note: Starting source stepping
Note: Source stepping completed
Using SPARSE 1.3 as Direct Linear Solver
Note: Starting dynamic gmin stepping
Warning: Dynamic gmin stepping failed
Note: Starting true gmin stepping
Warning: True gmin stepping failed
Note: Starting source stepping
Note: Source stepping completed

Note: No compatibility mode selected!


Circuit: simulation of the cs sc amplifier by c. enz

Doing analysis at TEMP = 27.000000 and TNOM = 27.000000


No. of Data Rows : 1
ASCII raw file "./Simulations/ngspice/sweep/CS_CL_optimization.ac.op"
Doing analysis at TEMP = 27.000000 and TNOM = 27.000000


No. of Data Rows : 607
adc                 =  1.963854e+01 at=  1.023060e+03
gbw                 =  1.049689e+06
fc                  =  1.020177e+03
fz                  =  1.014412e+03
Note: Simulation executed from .control section 
