Circuit: * M:\My Cloud\Google Drive (EPFL)\Lectures\Postgraduated\Advanced Analog\Slides\SCF\Quarto\Simulation of SC Circuits\Simulations\LTSpice\Delay\Delay.asc


Date: Fri Jun 20 14:38:16 2025
Total elapsed time: 0.024 seconds.

tnom = 27
temp = 27
method = trap
totiter = 0
traniter = 0
tranpoints = 0
accept = 0
rejected = 0
matrix size = 14
fillins = 6
solver = Normal

