Circuit: * L:\My Drive\Lectures\Master\Fundamentals of Analog VLSI Design\2024\Jupyter Notebooks\Delay in s-domain\Simulations\LTSpice\Delay.asc


Date: Tue Dec 17 15:25:30 2024
Total elapsed time: 0.099 seconds.

tnom = 27
temp = 27
method = trap
totiter = 0
traniter = 0
tranpoints = 0
accept = 0
rejected = 0
matrix size = 14
fillins = 6
solver = Normal

