Using SPARSE 1.3 as Direct Linear Solver
Note: Starting dynamic gmin stepping
Note: Dynamic gmin stepping completed
Using SPARSE 1.3 as Direct Linear Solver
Note: Starting dynamic gmin stepping
Note: Dynamic gmin stepping completed

Note: No compatibility mode selected!


Circuit: simulation of the simple ota designed with the ekv 2.6 model

Doing analysis at TEMP = 27.000000 and TNOM = 27.000000


No. of Data Rows : 1

Node data saved to file ./Simulations/ngspice/Follower/simple_ota.tran.ic
ASCII raw file "./Simulations/ngspice/Follower/Simple_OTA.tran.op"
Doing analysis at TEMP = 27.000000 and TNOM = 27.000000


Initial Transient Solution
--------------------------

Node                                   Voltage
----                                   -------
2                                      1.26685
inp                                        0.3
1                                   0.00888586
out                                   0.300543
vdd                                        1.8
3                                     0.750271
vin#branch                                   0
vdd#branch                        -5.34116e-07


No. of Data Rows : 1022
Note: Simulation executed from .control section 
