Circuit: * M:\My Cloud\Google Drive (EPFL)\Lectures\Postgraduated\Advanced Analog\Slides\SCF\Quarto\Simulation of SC Circuits\Simulations\LTSpice\3rd-order LP\SC_3rd_order_LPF.asc

Ignoring empty pin current: Ix(oa1:in+)
Ignoring empty pin current: Ix(oa1:in-p1)
Ignoring empty pin current: Ix(oa1:in-p2)
Ignoring empty pin current: Ix(oa2:in+)
Ignoring empty pin current: Ix(oa2:in-p1)
Ignoring empty pin current: Ix(oa2:in-p2)
Ignoring empty pin current: Ix(oa3:in+)
Ignoring empty pin current: Ix(oa3:in-p1)
Ignoring empty pin current: Ix(oa3:in-p2)

Date: Fri Jun 20 14:12:12 2025
Total elapsed time: 0.056 seconds.

tnom = 27
temp = 27
method = trap
totiter = 0
traniter = 0
tranpoints = 0
accept = 0
rejected = 0
matrix size = 20
fillins = 2
solver = Normal

