Using SPARSE 1.3 as Direct Linear Solver
Warning: singular matrix:  check node g1b

Note: Starting dynamic gmin stepping
Warning: singular matrix:  check node g1b

Warning: Dynamic gmin stepping failed
Note: Starting true gmin stepping
Warning: singular matrix:  check node g1b

Warning: singular matrix:  check node g1b

Warning: singular matrix:  check node g1b

Warning: singular matrix:  check node g1b

Warning: True gmin stepping failed
Note: Starting source stepping
Warning: source stepping failed
Note: Transient op started
Note: Transient op finished successfully
Using SPARSE 1.3 as Direct Linear Solver
Note: Starting dynamic gmin stepping
Warning: singular matrix:  check node outp

Warning: Dynamic gmin stepping failed
Note: Starting true gmin stepping
Warning: singular matrix:  check node g1a

Warning: singular matrix:  check node g1a

Warning: singular matrix:  check node g1a

Warning: singular matrix:  check node g1a

Warning: singular matrix:  check node g1a

Warning: True gmin stepping failed
Note: Starting source stepping
Warning: source stepping failed
Note: Transient op started
Note: Transient op finished successfully

Note: No compatibility mode selected!


Circuit: simulation of the cs sc amplifier by c. enz

Doing analysis at TEMP = 27.000000 and TNOM = 27.000000


No. of Data Rows : 1
ASCII raw file "./Simulations/ngspice/Fully_diff_amp.ac.op"
Doing analysis at TEMP = 27.000000 and TNOM = 27.000000


No. of Data Rows : 607
adc                 =  1.979110e+01 at=  1.000000e+02
gbw                 =  1.008506e+06
fc                  =  1.017935e+05
fz                  =  1.247182e+07
Note: Simulation executed from .control section 
