Using SPARSE 1.3 as Direct Linear Solver
Warning: singular matrix:  check node g1b

Note: Starting dynamic gmin stepping
Warning: singular matrix:  check node g1b

Warning: Dynamic gmin stepping failed
Note: Starting true gmin stepping
Warning: singular matrix:  check node g1b

Warning: singular matrix:  check node g1b

Warning: singular matrix:  check node g1b

Warning: singular matrix:  check node g1b

Warning: True gmin stepping failed
Note: Starting source stepping
Warning: source stepping failed
Note: Transient op started
Note: Transient op finished successfully

Note: No compatibility mode selected!


Circuit: simulation of the fully differential sc amplifier by c. enz

Doing analysis at TEMP = 27.000000 and TNOM = 27.000000


No. of Data Rows : 1

Node data saved to file ./Simulations/ngspice/fully_diff_amp.op.ic
Note: Simulation executed from .control section 
