Using SPARSE 1.3 as Direct Linear Solver

Note: No compatibility mode selected!


Circuit: * first-order non-inverting sc lp filter

Reducing trtol to 1 for xspice 'A' devices
Doing analysis at TEMP = 27.000000 and TNOM = 27.000000


No. of Data Rows : 401
Note: Simulation executed from .control section 
