Using SPARSE 1.3 as Direct Linear Solver
Note: vin: has no value, DC 0 assumed
Note: Starting dynamic gmin stepping
Note: Dynamic gmin stepping completed

Note: No compatibility mode selected!


Circuit: simulation of the cs stage optimized for gbw and dc gain

Doing analysis at TEMP = 27.000000 and TNOM = 27.000000


No. of Data Rows : 1

Node data saved to file ./Simulations/ngspice/Optimization for Adc and GBW/cs_gbw_adc.op.ic
Note: Simulation executed from .control section 
