Using SPARSE 1.3 as Direct Linear Solver
Note: vin: has no value, DC 0 assumed
Note: Starting dynamic gmin stepping
Note: Dynamic gmin stepping completed
Using SPARSE 1.3 as Direct Linear Solver
Note: vin: has no value, DC 0 assumed
Note: Starting dynamic gmin stepping
Note: Dynamic gmin stepping completed

Note: No compatibility mode selected!


Circuit: simulation of the cs stage designed with the corresponding jupyter notebook

Doing analysis at TEMP = 27.000000 and TNOM = 27.000000


No. of Data Rows : 1
ASCII raw file "./Simulations/ngspice/Optimization for Adc and GBW/CS_GBW_Adc.ac.op"
Doing analysis at TEMP = 27.000000 and TNOM = 27.000000


No. of Data Rows : 607
adc                 =  5.092682e+01 at=  1.000000e+04
gbw                 =  1.019390e+08
fc                  =  2.882789e+05
fz                  =  1.143427e+09
Note: Simulation executed from .control section 
