Using SPARSE 1.3 as Direct Linear Solver
Note: Starting dynamic gmin stepping
Note: Dynamic gmin stepping completed
Using SPARSE 1.3 as Direct Linear Solver
Note: Starting dynamic gmin stepping
Note: Dynamic gmin stepping completed

Note: No compatibility mode selected!


Circuit: simulation of the symmetrical ota designed with the ekv 2.6 model

Doing analysis at TEMP = 27.000000 and TNOM = 27.000000


No. of Data Rows : 1
ASCII raw file "./Simulations/ngspice/Gain/Miller_OTA.ac.op"
Doing analysis at TEMP = 27.000000 and TNOM = 27.000000


No. of Data Rows : 370
adc                 =  1.121325e+02 at=  1.000000e-01
gbw                 =  1.117754e+06
pgbw                =  -1.204708e+02
Note: Simulation executed from .control section 
