Using SPARSE 1.3 as Direct Linear Solver
Warning: singular matrix:  check node 1

Note: Starting dynamic gmin stepping
Warning: singular matrix:  check node 1

Warning: Dynamic gmin stepping failed
Note: Starting true gmin stepping
Warning: singular matrix:  check node 1

Warning: singular matrix:  check node 1

Warning: singular matrix:  check node 1

Warning: singular matrix:  check node 1

Warning: True gmin stepping failed
Note: Starting source stepping
Warning: source stepping failed
Note: Transient op started
Note: Transient op finished successfully

Note: No compatibility mode selected!


Circuit: large-signal step response of capacitively coupled ota by c. enz

Doing analysis at TEMP = 27.000000 and TNOM = 27.000000


Initial Transient Solution
--------------------------

Node                                   Voltage
----                                   -------
out                                          0
1                                            0
in                                           0
vin#branch                                   0


No. of Data Rows : 1022
Note: Simulation executed from .control section 
