Circuit: * M:\My Cloud\Google Drive (EPFL)\Lectures\Postgraduated\Advanced Analog\Slides\SCF\Quarto\Simulation of SC Circuits\Simulations\LTSpice\LP Passive Filter\LP_RC_lin.asc


Date: Fri Jun 20 14:11:53 2025
Total elapsed time: 0.065 seconds.

tnom = 27
temp = 27
method = trap
totiter = 0
traniter = 0
tranpoints = 0
accept = 0
rejected = 0
matrix size = 5
fillins = 0
solver = Normal

