LTspice 24.0.12 for Windows
Circuit: * G:\My Drive\Lectures\Master\Fundamentals of Analog VLSI Design\2024\Jupyter Notebooks\Simulation of SC Circuits\Simulations\LTSpice\LP Passive Filter\LP_RC_log.asc
Start Time: Mon Dec 23 15:35:21 2024
solver = Normal
Maximum thread count: 8
tnom = 27
temp = 27
method = modified trap
.OP point found by inspection.
Total elapsed time: 0.201 seconds.

